7
	Energy:      -0.3210033
C         -4.23467        1.52044       -0.06163
C         -2.93143        1.45223       -0.03826
H         -4.82463        0.61111       -0.09309
H         -4.72731        2.48647       -0.05472
C         -1.62816        1.38370       -0.01530
H         -1.10620        1.29924        0.93146
H         -1.06769        1.40688       -0.94334
